Scots/data/case57.py
from numpy import array
def case57():
	ppc = {"version": '2'}
	ppc["baseMVA"] = 100.0
	ppc["bus"] = array([
		[1.0,    3.0, 55.0,     17.0,     0.0,    0.0,    1.0, 1.04,     0.0,      0.0,      1.0, 1.06,     0.94,     0.6, 10   ],
		[2.0,    2.0, 3.0,      88.0,     0.0,    0.0,    1.0, 1.01,     -1.18,    0.0,      1.0, 1.06,     0.94,     0.6, 10   ],
		[3.0,    2.0, 41.0,     21.0,     0.0,    0.0,    1.0, 0.985,    -5.97,    0.0,      1.0, 1.06,     0.94,     0.6, 10   ],
		[4.0,    1.0, 0.0,      0.0,      0.0,    0.0,    1.0, 0.981,    -7.32,    0.0,      1.0, 1.06,     0.94,     0.6, 10   ],
		[5.0,    1.0, 13.0,     4.0,      0.0,    0.0,    1.0, 0.976,    -8.52,    0.0,      1.0, 1.06,     0.94,     0.6, 10   ],
		[6.0,    2.0, 75.0,     2.0,      0.0,    0.0,    1.0, 0.98,     -8.65,    0.0,      1.0, 1.06,     0.94,     0.6, 10   ],
		[7.0,    1.0, 0.0,      0.0,      0.0,    0.0,    1.0, 0.984,    -7.58,    0.0,      1.0, 1.06,     0.94,     0.6, 10   ],
		[8.0,    2.0, 150.0,    22.0,     0.0,    0.0,    1.0, 1.005,    -4.45,    0.0,      1.0, 1.06,     0.94,     0.6, 10   ],
		[9.0,    2.0, 121.0,    26.0,     0.0,    0.0,    1.0, 0.98,     -9.56,    0.0,      1.0, 1.06,     0.94,     0.6, 10   ],
		[10.0,   1.0, 5.0,      2.0,      0.0,    0.0,    1.0, 0.986,    -11.43,   0.0,      1.0, 1.06,     0.94,     0.6, 10   ],
		[11.0,   1.0, 0.0,      0.0,      0.0,    0.0,    1.0, 0.974,    -10.17,   0.0,      1.0, 1.06,     0.94,     0.6, 10   ],
		[12.0,   2.0, 377.0,    24.0,     0.0,    0.0,    1.0, 1.015,    -10.46,   0.0,      1.0, 1.06,     0.94,     0.6, 10   ],
		[13.0,   1.0, 18.0,     2.3,      0.0,    0.0,    1.0, 0.979,    -9.79,    0.0,      1.0, 1.06,     0.94,     0.6, 10   ],
		[14.0,   1.0, 10.5,     5.3,      0.0,    0.0,    1.0, 0.97,     -9.33,    0.0,      1.0, 1.06,     0.94,     0.6, 10   ],
		[15.0,   1.0, 22.0,     5.0,      0.0,    0.0,    1.0, 0.988,    -7.18,    0.0,      1.0, 1.06,     0.94,     0.6, 10   ],
		[16.0,   1.0, 43.0,     3.0,      0.0,    0.0,    1.0, 1.013,    -8.85,    0.0,      1.0, 1.06,     0.94,     0.6, 10   ],
		[17.0,   1.0, 42.0,     8.0,      0.0,    0.0,    1.0, 1.017,    -5.39,    0.0,      1.0, 1.06,     0.94,     0.6, 10   ],
		[18.0,   1.0, 27.2,     9.8,      0.0,    10.0,   1.0, 1.001,    -11.71,   0.0,      1.0, 1.06,     0.94,     0.6, 10   ],
		[19.0,   1.0, 3.3,      0.6,      0.0,    0.0,    1.0, 0.97,     -13.2,    0.0,      1.0, 1.06,     0.94,     0.6, 10   ],
		[20.0,   1.0, 2.3,      1.0,      0.0,    0.0,    1.0, 0.964,    -13.41,   0.0,      1.0, 1.06,     0.94,     0.6, 10   ],
		[21.0,   1.0, 0.0,      0.0,      0.0,    0.0,    1.0, 1.008,    -12.89,   0.0,      1.0, 1.06,     0.94,     0.6, 10   ],
		[22.0,   1.0, 0.0,      0.0,      0.0,    0.0,    1.0, 1.01,     -12.84,   0.0,      1.0, 1.06,     0.94,     0.6, 10   ],
		[23.0,   1.0, 6.3,      2.1,      0.0,    0.0,    1.0, 1.008,    -12.91,   0.0,      1.0, 1.06,     0.94,     0.6, 10   ],
		[24.0,   1.0, 0.0,      0.0,      0.0,    0.0,    1.0, 0.999,    -13.25,   0.0,      1.0, 1.06,     0.94,     0.6, 10   ],
		[25.0,   1.0, 6.3,      3.2,      0.0,    5.9,    1.0, 0.982,    -18.13,   0.0,      1.0, 1.06,     0.94,     0.6, 10   ],
		[26.0,   1.0, 0.0,      0.0,      0.0,    0.0,    1.0, 0.959,    -12.95,   0.0,      1.0, 1.06,     0.94,     0.6, 10   ],
		[27.0,   1.0, 9.3,      0.5,      0.0,    0.0,    1.0, 0.982,    -11.48,   0.0,      1.0, 1.06,     0.94,     0.6, 10   ],
		[28.0,   1.0, 4.6,      2.3,      0.0,    0.0,    1.0, 0.997,    -10.45,   0.0,      1.0, 1.06,     0.94,     0.6, 10   ],
		[29.0,   1.0, 17.0,     2.6,      0.0,    0.0,    1.0, 1.01,     -9.75,    0.0,      1.0, 1.06,     0.94,     0.6, 10   ],
		[30.0,   1.0, 3.6,      1.8,      0.0,    0.0,    1.0, 0.962,    -18.68,   0.0,      1.0, 1.06,     0.94,     0.6, 10   ],
		[31.0,   1.0, 5.8,      2.9,      0.0,    0.0,    1.0, 0.936,    -19.34,   0.0,      1.0, 1.06,     0.94,     0.6, 10   ],
		[32.0,   1.0, 1.6,      0.8,      0.0,    0.0,    1.0, 0.949,    -18.46,   0.0,      1.0, 1.06,     0.94,     0.6, 10   ],
		[33.0,   1.0, 3.8,      1.9,      0.0,    0.0,    1.0, 0.947,    -18.5,    0.0,      1.0, 1.06,     0.94,     0.6, 10   ],
		[34.0,   1.0, 0.0,      0.0,      0.0,    0.0,    1.0, 0.959,    -14.1,    0.0,      1.0, 1.06,     0.94,     0.6, 10   ],
		[35.0,   1.0, 6.0,      3.0,      0.0,    0.0,    1.0, 0.966,    -13.86,   0.0,      1.0, 1.06,     0.94,     0.6, 10   ],
		[36.0,   1.0, 0.0,      0.0,      0.0,    0.0,    1.0, 0.976,    -13.59,   0.0,      1.0, 1.06,     0.94,     0.6, 10   ],
		[37.0,   1.0, 0.0,      0.0,      0.0,    0.0,    1.0, 0.985,    -13.41,   0.0,      1.0, 1.06,     0.94,     0.6, 10   ],
		[38.0,   1.0, 14.0,     7.0,      0.0,    0.0,    1.0, 1.013,    -12.71,   0.0,      1.0, 1.06,     0.94,     0.6, 10   ],
		[39.0,   1.0, 0.0,      0.0,      0.0,    0.0,    1.0, 0.983,    -13.46,   0.0,      1.0, 1.06,     0.94,     0.6, 10   ],
		[40.0,   1.0, 0.0,      0.0,      0.0,    0.0,    1.0, 0.973,    -13.62,   0.0,      1.0, 1.06,     0.94,     0.6, 10   ],
		[41.0,   1.0, 6.3,      3.0,      0.0,    0.0,    1.0, 0.996,    -14.05,   0.0,      1.0, 1.06,     0.94,     0.6, 10   ],
		[42.0,   1.0, 7.1,      4.4,      0.0,    0.0,    1.0, 0.966,    -15.5,    0.0,      1.0, 1.06,     0.94,     0.6, 10   ],
		[43.0,   1.0, 2.0,      1.0,      0.0,    0.0,    1.0, 1.01,     -11.33,   0.0,      1.0, 1.06,     0.94,     0.6, 10   ],
		[44.0,   1.0, 12.0,     1.8,      0.0,    0.0,    1.0, 1.017,    -11.86,   0.0,      1.0, 1.06,     0.94,     0.6, 10   ],
		[45.0,   1.0, 0.0,      0.0,      0.0,    0.0,    1.0, 1.036,    -9.25,    0.0,      1.0, 1.06,     0.94,     0.6, 10   ],
		[46.0,   1.0, 0.0,      0.0,      0.0,    0.0,    1.0, 1.05,     -11.89,   0.0,      1.0, 1.06,     0.94,     0.6, 10   ],
		[47.0,   1.0, 29.7,     11.6,     0.0,    0.0,    1.0, 1.033,    -12.49,   0.0,      1.0, 1.06,     0.94,     0.6, 10   ],
		[48.0,   1.0, 0.0,      0.0,      0.0,    0.0,    1.0, 1.027,    -12.59,   0.0,      1.0, 1.06,     0.94,     0.6, 10   ],
		[49.0,   1.0, 18.0,     8.5,      0.0,    0.0,    1.0, 1.036,    -12.92,   0.0,      1.0, 1.06,     0.94,     0.6, 10   ],
		[50.0,   1.0, 21.0,     10.5,     0.0,    0.0,    1.0, 1.023,    -13.39,   0.0,      1.0, 1.06,     0.94,     0.6, 10   ],
		[51.0,   1.0, 18.0,     5.3,      0.0,    0.0,    1.0, 1.052,    -12.52,   0.0,      1.0, 1.06,     0.94,     0.6, 10   ],
		[52.0,   1.0, 4.9,      2.2,      0.0,    0.0,    1.0, 0.98,     -11.47,   0.0,      1.0, 1.06,     0.94,     0.6, 10   ],
		[53.0,   1.0, 20.0,     10.0,     0.0,    6.3,    1.0, 0.971,    -12.23,   0.0,      1.0, 1.06,     0.94,     0.6, 10   ],
		[54.0,   1.0, 4.1,      1.4,      0.0,    0.0,    1.0, 0.996,    -11.69,   0.0,      1.0, 1.06,     0.94,     0.6, 10   ],
		[55.0,   1.0, 6.8,      3.4,      0.0,    0.0,    1.0, 1.031,    -10.78,   0.0,      1.0, 1.06,     0.94,     0.6, 10   ],
		[56.0,   1.0, 7.6,      2.2,      0.0,    0.0,    1.0, 0.968,    -16.04,   0.0,      1.0, 1.06,     0.94,     0.6, 10   ],
		[57.0,   1.0, 6.7,      2.0,      0.0,    0.0,    1.0, 0.965,    -16.56,   0.0,      1.0, 1.06,     0.94,     0.6, 10   ]
	])
	ppc["gen"] = array([
		[1.0,    128.9,    -16.1,    200.0,    -140.0,   1.04,     100.0,  1.0, 575.88,   0.0,      0, 0, 0, 0, 0, 0, 0, 0, 0, 0, 0, 172.76,   230.35    ],
		[2.0,    0.0,      -0.8,     50.0,     -17.0,    1.01,     100.0,  1.0, 100.0,    0.0,      0, 0, 0, 0, 0, 0, 0, 0, 0, 0, 0, 30.0,     40.0      ],
		[3.0,    40.0,     -1.0,     60.0,     -10.0,    0.985,    100.0,  1.0, 140.0,    0.0,      0, 0, 0, 0, 0, 0, 0, 0, 0, 0, 0, 42.0,     56.0      ],
		[6.0,    0.0,      0.8,      25.0,     -8.0,     0.98,     100.0,  1.0, 100.0,    0.0,      0, 0, 0, 0, 0, 0, 0, 0, 0, 0, 0, 30.0,     40.0      ],
		[8.0,    450.0,    62.1,     200.0,    -140.0,   1.005,    100.0,  1.0, 550.0,    0.0,      0, 0, 0, 0, 0, 0, 0, 0, 0, 0, 0, 165.0,    220.0     ],
		[9.0,    0.0,      2.2,      9.0,      -3.0,     0.98,     100.0,  1.0, 100.0,    0.0,      0, 0, 0, 0, 0, 0, 0, 0, 0, 0, 0, 30.0,     40.0      ],
		[12.0,   310.0,    128.5,    155.0,    -150.0,   1.015,    100.0,  1.0, 410.0,    0.0,      0, 0, 0, 0, 0, 0, 0, 0, 0, 0, 0, 123.0,    164.0     ]
	])
	ppc["branch"] = array([
		[1.0,    2.0,    0.0083,        0.028,         0.129,         9900.0, 0.0,0.0,0.0,    0.0,1.0,-360.0, 360.0,  0.1     ],
		[2.0,    3.0,    0.0298,        0.085,         0.0818,        9900.0, 0.0,0.0,0.0,    0.0,1.0,-360.0, 360.0,  0.1     ],
		[3.0,    4.0,    0.0112,        0.0366,        0.038,         9900.0, 0.0,0.0,0.0,    0.0,1.0,-360.0, 360.0,  0.1     ],
		[4.0,    5.0,    0.0625,        0.132,         0.0258,        9900.0, 0.0,0.0,0.0,    0.0,1.0,-360.0, 360.0,  0.1     ],
		[4.0,    6.0,    0.043,         0.148,         0.0348,        9900.0, 0.0,0.0,0.0,    0.0,1.0,-360.0, 360.0,  0.1     ],
		[6.0,    7.0,    0.02,          0.102,         0.0276,        9900.0, 0.0,0.0,0.0,    0.0,1.0,-360.0, 360.0,  0.1     ],
		[6.0,    8.0,    0.0339,        0.173,         0.047,         9900.0, 0.0,0.0,0.0,    0.0,1.0,-360.0, 360.0,  0.1     ],
		[8.0,    9.0,    0.0099,        0.0505,        0.0548,        9900.0, 0.0,0.0,0.0,    0.0,1.0,-360.0, 360.0,  0.1     ],
		[9.0,    10.0,   0.0369,        0.1679,        0.044,         9900.0, 0.0,0.0,0.0,    0.0,1.0,-360.0, 360.0,  0.1     ],
		[9.0,    11.0,   0.0258,        0.0848,        0.0218,        9900.0, 0.0,0.0,0.0,    0.0,1.0,-360.0, 360.0,  0.1     ],
		[9.0,    12.0,   0.0648,        0.295,         0.0772,        9900.0, 0.0,0.0,0.0,    0.0,1.0,-360.0, 360.0,  0.1     ],
		[9.0,    13.0,   0.0481,        0.158,         0.0406,        9900.0, 0.0,0.0,0.0,    0.0,1.0,-360.0, 360.0,  0.1     ],
		[13.0,   14.0,   0.0132,        0.0434,        0.011,         9900.0, 0.0,0.0,0.0,    0.0,1.0,-360.0, 360.0,  0.1     ],
		[13.0,   15.0,   0.0269,        0.0869,        0.023,         9900.0, 0.0,0.0,0.0,    0.0,1.0,-360.0, 360.0,  0.1     ],
		[1.0,    15.0,   0.0178,        0.091,         0.0988,        9900.0, 0.0,0.0,0.0,    0.0,1.0,-360.0, 360.0,  0.1     ],
		[1.0,    16.0,   0.0454,        0.206,         0.0546,        9900.0, 0.0,0.0,0.0,    0.0,1.0,-360.0, 360.0,  0.1     ],
		[1.0,    17.0,   0.0238,        0.108,         0.0286,        9900.0, 0.0,0.0,0.0,    0.0,1.0,-360.0, 360.0,  0.1     ],
		[3.0,    15.0,   0.0162,        0.053,         0.0544,        9900.0, 0.0,0.0,0.0,    0.0,1.0,-360.0, 360.0,  0.1     ],
		[4.0,    18.0,   0.0,           0.555,         0.0,           9900.0, 0.0,0.0,0.97,   0.0,1.0,-360.0, 360.0,  0.1     ],
		[4.0,    18.0,   0.0,           0.43,          0.0,           9900.0, 0.0,0.0,0.978,  0.0,1.0,-360.0, 360.0,  0.1     ],
		[5.0,    6.0,    0.0302,        0.0641,        0.0124,        9900.0, 0.0,0.0,0.0,    0.0,1.0,-360.0, 360.0,  0.1     ],
		[7.0,    8.0,    0.0139,        0.0712,        0.0194,        9900.0, 0.0,0.0,0.0,    0.0,1.0,-360.0, 360.0,  0.1     ],
		[10.0,   12.0,   0.0277,        0.1262,        0.0328,        9900.0, 0.0,0.0,0.0,    0.0,1.0,-360.0, 360.0,  0.1     ],
		[11.0,   13.0,   0.0223,        0.0732,        0.0188,        9900.0, 0.0,0.0,0.0,    0.0,1.0,-360.0, 360.0,  0.1     ],
		[12.0,   13.0,   0.0178,        0.058,         0.0604,        9900.0, 0.0,0.0,0.0,    0.0,1.0,-360.0, 360.0,  0.1     ],
		[12.0,   16.0,   0.018,         0.0813,        0.0216,        9900.0, 0.0,0.0,0.0,    0.0,1.0,-360.0, 360.0,  0.1     ],
		[12.0,   17.0,   0.0397,        0.179,         0.0476,        9900.0, 0.0,0.0,0.0,    0.0,1.0,-360.0, 360.0,  0.1     ],
		[14.0,   15.0,   0.0171,        0.0547,        0.0148,        9900.0, 0.0,0.0,0.0,    0.0,1.0,-360.0, 360.0,  0.1     ],
		[18.0,   19.0,   0.461,         0.685,         0.0,           9900.0, 0.0,0.0,0.0,    0.0,1.0,-360.0, 360.0,  0.1     ],
		[19.0,   20.0,   0.283,         0.434,         0.0,           9900.0, 0.0,0.0,0.0,    0.0,1.0,-360.0, 360.0,  0.1     ],
		[21.0,   20.0,   0.0,           0.7767,        0.0,           9900.0, 0.0,0.0,1.043,  0.0,1.0,-360.0, 360.0,  0.1     ],
		[21.0,   22.0,   0.0736,        0.117,         0.0,           9900.0, 0.0,0.0,0.0,    0.0,1.0,-360.0, 360.0,  0.1     ],
		[22.0,   23.0,   0.0099,        0.0152,        0.0,           9900.0, 0.0,0.0,0.0,    0.0,1.0,-360.0, 360.0,  0.1     ],
		[23.0,   24.0,   0.166,         0.256,         0.0084,        9900.0, 0.0,0.0,0.0,    0.0,1.0,-360.0, 360.0,  0.1     ],
		[24.0,   25.0,   0.0,           1.182,         0.0,           9900.0, 0.0,0.0,1.0,    0.0,1.0,-360.0, 360.0,  0.1     ],
		[24.0,   25.0,   0.0,           1.23,          0.0,           9900.0, 0.0,0.0,1.0,    0.0,1.0,-360.0, 360.0,  0.1     ],
		[24.0,   26.0,   0.0,           0.0473,        0.0,           9900.0, 0.0,0.0,1.043,  0.0,1.0,-360.0, 360.0,  0.1     ],
		[26.0,   27.0,   0.165,         0.254,         0.0,           9900.0, 0.0,0.0,0.0,    0.0,1.0,-360.0, 360.0,  0.1     ],
		[27.0,   28.0,   0.0618,        0.0954,        0.0,           9900.0, 0.0,0.0,0.0,    0.0,1.0,-360.0, 360.0,  0.1     ],
		[28.0,   29.0,   0.0418,        0.0587,        0.0,           9900.0, 0.0,0.0,0.0,    0.0,1.0,-360.0, 360.0,  0.1     ],
		[7.0,    29.0,   0.0,           0.0648,        0.0,           9900.0, 0.0,0.0,0.967,  0.0,1.0,-360.0, 360.0,  0.1     ],
		[25.0,   30.0,   0.135,         0.202,         0.0,           9900.0, 0.0,0.0,0.0,    0.0,1.0,-360.0, 360.0,  0.1     ],
		[30.0,   31.0,   0.326,         0.497,         0.0,           9900.0, 0.0,0.0,0.0,    0.0,1.0,-360.0, 360.0,  0.1     ],
		[31.0,   32.0,   0.507,         0.755,         0.0,           9900.0, 0.0,0.0,0.0,    0.0,1.0,-360.0, 360.0,  0.1     ],
		[32.0,   33.0,   0.0392,        0.036,         0.0,           9900.0, 0.0,0.0,0.0,    0.0,1.0,-360.0, 360.0,  0.1     ],
		[34.0,   32.0,   0.0,           0.953,         0.0,           9900.0, 0.0,0.0,0.975,  0.0,1.0,-360.0, 360.0,  0.1     ],
		[34.0,   35.0,   0.052,         0.078,         0.0032,        9900.0, 0.0,0.0,0.0,    0.0,1.0,-360.0, 360.0,  0.1     ],
		[35.0,   36.0,   0.043,         0.0537,        0.0016,        9900.0, 0.0,0.0,0.0,    0.0,1.0,-360.0, 360.0,  0.1     ],
		[36.0,   37.0,   0.029,         0.0366,        0.0,           9900.0, 0.0,0.0,0.0,    0.0,1.0,-360.0, 360.0,  0.1     ],
		[37.0,   38.0,   0.0651,        0.1009,        0.002,         9900.0, 0.0,0.0,0.0,    0.0,1.0,-360.0, 360.0,  0.1     ],
		[37.0,   39.0,   0.0239,        0.0379,        0.0,           9900.0, 0.0,0.0,0.0,    0.0,1.0,-360.0, 360.0,  0.1     ],
		[36.0,   40.0,   0.03,          0.0466,        0.0,           9900.0, 0.0,0.0,0.0,    0.0,1.0,-360.0, 360.0,  0.1     ],
		[22.0,   38.0,   0.0192,        0.0295,        0.0,           9900.0, 0.0,0.0,0.0,    0.0,1.0,-360.0, 360.0,  0.1     ],
		[11.0,   41.0,   0.0,           0.749,         0.0,           9900.0, 0.0,0.0,0.955,  0.0,1.0,-360.0, 360.0,  0.1     ],
		[41.0,   42.0,   0.207,         0.352,         0.0,           9900.0, 0.0,0.0,0.0,    0.0,1.0,-360.0, 360.0,  0.1     ],
		[41.0,   43.0,   0.0,           0.412,         0.0,           9900.0, 0.0,0.0,0.0,    0.0,1.0,-360.0, 360.0,  0.1     ],
		[38.0,   44.0,   0.0289,        0.0585,        0.002,         9900.0, 0.0,0.0,0.0,    0.0,1.0,-360.0, 360.0,  0.1     ],
		[15.0,   45.0,   0.0,           0.1042,        0.0,           9900.0, 0.0,0.0,0.955,  0.0,1.0,-360.0, 360.0,  0.1     ],
		[14.0,   46.0,   0.0,           0.0735,        0.0,           9900.0, 0.0,0.0,0.9,    0.0,1.0,-360.0, 360.0,  0.1     ],
		[46.0,   47.0,   0.023,         0.068,         0.0032,        9900.0, 0.0,0.0,0.0,    0.0,1.0,-360.0, 360.0,  0.1     ],
		[47.0,   48.0,   0.0182,        0.0233,        0.0,           9900.0, 0.0,0.0,0.0,    0.0,1.0,-360.0, 360.0,  0.1     ],
		[48.0,   49.0,   0.0834,        0.129,         0.0048,        9900.0, 0.0,0.0,0.0,    0.0,1.0,-360.0, 360.0,  0.1     ],
		[49.0,   50.0,   0.0801,        0.128,         0.0,           9900.0, 0.0,0.0,0.0,    0.0,1.0,-360.0, 360.0,  0.1     ],
		[50.0,   51.0,   0.1386,        0.22,          0.0,           9900.0, 0.0,0.0,0.0,    0.0,1.0,-360.0, 360.0,  0.1     ],
		[10.0,   51.0,   0.0,           0.0712,        0.0,           9900.0, 0.0,0.0,0.93,   0.0,1.0,-360.0, 360.0,  0.1     ],
		[13.0,   49.0,   0.0,           0.191,         0.0,           9900.0, 0.0,0.0,0.895,  0.0,1.0,-360.0, 360.0,  0.1     ],
		[29.0,   52.0,   0.1442,        0.187,         0.0,           9900.0, 0.0,0.0,0.0,    0.0,1.0,-360.0, 360.0,  0.1     ],
		[52.0,   53.0,   0.0762,        0.0984,        0.0,           9900.0, 0.0,0.0,0.0,    0.0,1.0,-360.0, 360.0,  0.1     ],
		[53.0,   54.0,   0.1878,        0.232,         0.0,           9900.0, 0.0,0.0,0.0,    0.0,1.0,-360.0, 360.0,  0.1     ],
		[54.0,   55.0,   0.1732,        0.2265,        0.0,           9900.0, 0.0,0.0,0.0,    0.0,1.0,-360.0, 360.0,  0.1     ],
		[11.0,   43.0,   0.0,           0.153,         0.0,           9900.0, 0.0,0.0,0.958,  0.0,1.0,-360.0, 360.0,  0.1     ],
		[44.0,   45.0,   0.0624,        0.1242,        0.004,         9900.0, 0.0,0.0,0.0,    0.0,1.0,-360.0, 360.0,  0.1     ],
		[40.0,   56.0,   0.0,           1.195,         0.0,           9900.0, 0.0,0.0,0.958,  0.0,1.0,-360.0, 360.0,  0.1     ],
		[56.0,   41.0,   0.553,         0.549,         0.0,           9900.0, 0.0,0.0,0.0,    0.0,1.0,-360.0, 360.0,  0.1     ],
		[56.0,   42.0,   0.2125,        0.354,         0.0,           9900.0, 0.0,0.0,0.0,    0.0,1.0,-360.0, 360.0,  0.1     ],
		[39.0,   57.0,   0.0,           1.355,         0.0,           9900.0, 0.0,0.0,0.98,   0.0,1.0,-360.0, 360.0,  0.1     ],
		[57.0,   56.0,   0.174,         0.26,          0.0,           9900.0, 0.0,0.0,0.0,    0.0,1.0,-360.0, 360.0,  0.1     ],
		[38.0,   49.0,   0.115,         0.177,         0.003,         9900.0, 0.0,0.0,0.0,    0.0,1.0,-360.0, 360.0,  0.1     ],
		[38.0,   48.0,   0.0312,        0.0482,        0.0,           9900.0, 0.0,0.0,0.0,    0.0,1.0,-360.0, 360.0,  0.1     ],
		[9.0,    55.0,   0.0,           0.1205,        0.0,           9900.0, 0.0,0.0,0.94,   0.0,1.0,-360.0, 360.0,  0.1     ]
	])
	ppc["gencost"] = array([
		[2.0, 0.0, 0.0, 3.0, 0.0775795,20.0,   0.0,    24.0,   12.0    ],
		[2.0, 0.0, 0.0, 3.0, 0.01,40.0,   0.0,    48.0,   24.0    ],
		[2.0, 0.0, 0.0, 3.0, 0.25,20.0,   0.0,    24.0,   12.0    ],
		[2.0, 0.0, 0.0, 3.0, 0.01,40.0,   0.0,    48.0,   24.0    ],
		[2.0, 0.0, 0.0, 3.0, 0.0222222,20.0,   0.0,    24.0,   12.0    ],
		[2.0, 0.0, 0.0, 3.0, 0.01,40.0,   0.0,    48.0,   24.0    ],
		[2.0, 0.0, 0.0, 3.0, 0.0322581,20.0,   0.0,    24.0,   12.0    ]
	])
	ppc['contingency'] = array([
		{'gen': [1], 'branch': [], 'p': 0.001} ,
		{'gen': [2], 'branch': [], 'p': 0.001} ,
		{'gen': [0], 'branch': [], 'p': 0.001} ,
		{'gen': [3], 'branch': [], 'p': 0.001} ,
		{'gen': [3, 4], 'branch': [], 'p': 1e-05} ,
		{'gen': [0, 5], 'branch': [], 'p': 1e-05} ,
		{'gen': [0, 3], 'branch': [], 'p': 1e-05} ,
		{'gen': [0, 1, 6], 'branch': [], 'p': 1e-07} ,
		{'gen': [0, 1, 3], 'branch': [], 'p': 1e-07} ,
		{'gen': [2, 3, 4], 'branch': [], 'p': 1e-07} ,
		{'gen': [], 'branch': [70], 'p': 0.001} ,
		{'gen': [], 'branch': [37], 'p': 0.001} ,
		{'gen': [], 'branch': [7], 'p': 0.001} ,
		{'gen': [], 'branch': [28], 'p': 0.001} ,
		{'gen': [], 'branch': [66], 'p': 0.001} ,
		{'gen': [], 'branch': [68], 'p': 0.001} ,
		{'gen': [], 'branch': [46], 'p': 0.001} ,
		{'gen': [], 'branch': [35], 'p': 0.001} ,
		{'gen': [], 'branch': [22], 'p': 0.001} ,
		{'gen': [], 'branch': [13], 'p': 0.001} ,
		{'gen': [], 'branch': [33], 'p': 0.001} ,
		{'gen': [], 'branch': [27], 'p': 0.001} ,
		{'gen': [], 'branch': [3], 'p': 0.001} ,
		{'gen': [], 'branch': [69], 'p': 0.001} ,
		{'gen': [], 'branch': [34], 'p': 0.001} ,
		{'gen': [], 'branch': [24], 'p': 0.001} ,
		{'gen': [], 'branch': [21], 'p': 0.001} ,
		{'gen': [], 'branch': [19], 'p': 0.001} ,
		{'gen': [], 'branch': [18], 'p': 0.001} ,
		{'gen': [], 'branch': [40], 'p': 0.001} ,
		{'gen': [], 'branch': [55], 'p': 0.001} ,
		{'gen': [], 'branch': [73], 'p': 0.001} ,
		{'gen': [], 'branch': [54], 'p': 0.001} ,
		{'gen': [], 'branch': [57], 'p': 0.001} ,
		{'gen': [], 'branch': [23], 'p': 0.001} ,
		{'gen': [], 'branch': [5], 'p': 0.001} ,
		{'gen': [], 'branch': [38], 'p': 0.001} ,
		{'gen': [], 'branch': [63], 'p': 0.001} ,
		{'gen': [], 'branch': [42], 'p': 0.001} ,
		{'gen': [], 'branch': [64], 'p': 0.001} ,
		{'gen': [], 'branch': [32, 73], 'p': 1e-05} ,
		{'gen': [], 'branch': [14, 19], 'p': 1e-05} ,
		{'gen': [], 'branch': [9, 63], 'p': 1e-05} ,
		{'gen': [], 'branch': [13, 78], 'p': 1e-05} ,
		{'gen': [], 'branch': [30, 35], 'p': 1e-05} ,
		{'gen': [], 'branch': [16, 19], 'p': 1e-05} ,
		{'gen': [], 'branch': [4, 60], 'p': 1e-05} ,
		{'gen': [], 'branch': [36, 66], 'p': 1e-05} ,
		{'gen': [], 'branch': [17, 40], 'p': 1e-05} ,
		{'gen': [], 'branch': [0, 30], 'p': 1e-05} ,
		{'gen': [], 'branch': [16, 68], 'p': 1e-05} ,
		{'gen': [], 'branch': [39, 44], 'p': 1e-05} ,
		{'gen': [], 'branch': [56, 60], 'p': 1e-05} ,
		{'gen': [], 'branch': [18, 26], 'p': 1e-05} ,
		{'gen': [], 'branch': [72, 75], 'p': 1e-05} ,
		{'gen': [], 'branch': [33, 37], 'p': 1e-05} ,
		{'gen': [], 'branch': [10, 65], 'p': 1e-05} ,
		{'gen': [], 'branch': [25, 46], 'p': 1e-05} ,
		{'gen': [], 'branch': [26, 33], 'p': 1e-05} ,
		{'gen': [], 'branch': [41, 76], 'p': 1e-05} ,
		{'gen': [], 'branch': [16, 53], 'p': 1e-05} ,
		{'gen': [], 'branch': [26, 63], 'p': 1e-05} ,
		{'gen': [], 'branch': [28, 43], 'p': 1e-05} ,
		{'gen': [], 'branch': [8, 65], 'p': 1e-05} ,
		{'gen': [], 'branch': [13, 20], 'p': 1e-05} ,
		{'gen': [], 'branch': [17, 60], 'p': 1e-05} ,
		{'gen': [], 'branch': [14, 63], 'p': 1e-05} ,
		{'gen': [], 'branch': [2, 23], 'p': 1e-05} ,
		{'gen': [], 'branch': [4, 27], 'p': 1e-05} ,
		{'gen': [], 'branch': [2, 35], 'p': 1e-05} ,
		{'gen': [], 'branch': [28, 42, 54], 'p': 1e-07} ,
		{'gen': [], 'branch': [71, 75, 79], 'p': 1e-07} ,
		{'gen': [], 'branch': [14, 20, 67], 'p': 1e-07} ,
		{'gen': [], 'branch': [35, 36, 76], 'p': 1e-07} ,
		{'gen': [], 'branch': [37, 44, 68], 'p': 1e-07} ,
		{'gen': [], 'branch': [29, 39, 66], 'p': 1e-07} ,
		{'gen': [], 'branch': [18, 29, 72], 'p': 1e-07} ,
		{'gen': [], 'branch': [6, 35, 75], 'p': 1e-07} ,
		{'gen': [], 'branch': [9, 19, 64], 'p': 1e-07} ,
		{'gen': [], 'branch': [2, 54, 78], 'p': 1e-07} ,
		{'gen': [], 'branch': [23, 53, 70], 'p': 1e-07} ,
		{'gen': [], 'branch': [9, 38, 44], 'p': 1e-07} ,
		{'gen': [], 'branch': [26, 36, 71], 'p': 1e-07} ,
		{'gen': [], 'branch': [13, 60, 66], 'p': 1e-07} ,
		{'gen': [], 'branch': [8, 36, 56], 'p': 1e-07} ,
		{'gen': [], 'branch': [19, 28, 54], 'p': 1e-07} ,
		{'gen': [], 'branch': [25, 58, 71], 'p': 1e-07} ,
		{'gen': [], 'branch': [47, 71, 79], 'p': 1e-07} ,
		{'gen': [], 'branch': [16, 50, 67], 'p': 1e-07} ,
		{'gen': [], 'branch': [41, 47, 59], 'p': 1e-07} ,
		{'gen': [], 'branch': [9, 27, 31], 'p': 1e-07} ,
		{'gen': [], 'branch': [16, 70, 73], 'p': 1e-07} ,
		{'gen': [], 'branch': [4, 26, 58], 'p': 1e-07} ,
		{'gen': [], 'branch': [2, 36, 48], 'p': 1e-07} ,
		{'gen': [], 'branch': [11, 15, 50], 'p': 1e-07} ,
		{'gen': [], 'branch': [13, 71, 77], 'p': 1e-07} ,
		{'gen': [], 'branch': [46, 51, 64], 'p': 1e-07} ,
		{'gen': [], 'branch': [58, 61, 68], 'p': 1e-07} ,
		{'gen': [], 'branch': [11, 36, 57], 'p': 1e-07} ,
		{'gen': [], 'branch': [5, 27, 79], 'p': 1e-07}
	])
	return ppc